LTspice 26.0.1 for Windows
Circuit: C:\Users\Angelo Apenkwah\Desktop\Projects\Logic processor\4bit processor.net
Start Time: Fri May  8 22:43:46 2026
C:\Users\Angelo Apenkwah\Desktop\Projects\Logic processor\4bit processor.net(652): This A-device controls a switch device but has zero rise/fall time. Setting rise time to 1ns.
A520 0 N353 0 N462 0 0 N386 0 AND
^^^^^^^^^^^^^^^^^^^^^^^^^^^^^^^^^
C:\Users\Angelo Apenkwah\Desktop\Projects\Logic processor\4bit processor.net(656): This A-device controls a switch device but has zero rise/fall time. Setting rise time to 1ns.
A524 0 N349 0 N450 0 0 N385 0 AND
^^^^^^^^^^^^^^^^^^^^^^^^^^^^^^^^^
C:\Users\Angelo Apenkwah\Desktop\Projects\Logic processor\4bit processor.net(660): This A-device controls a switch device but has zero rise/fall time. Setting rise time to 1ns.
A528 0 N445 0 N442 0 0 N383 0 AND
^^^^^^^^^^^^^^^^^^^^^^^^^^^^^^^^^
C:\Users\Angelo Apenkwah\Desktop\Projects\Logic processor\4bit processor.net(664): This A-device controls a switch device but has zero rise/fall time. Setting rise time to 1ns.
A532 0 N345 0 N435 0 0 N382 0 AND
^^^^^^^^^^^^^^^^^^^^^^^^^^^^^^^^^
C:\Users\Angelo Apenkwah\Desktop\Projects\Logic processor\4bit processor.net(668): This A-device controls a switch device but has zero rise/fall time. Setting rise time to 1ns.
A536 0 N349 0 N390 0 0 N379 0 AND
^^^^^^^^^^^^^^^^^^^^^^^^^^^^^^^^^
C:\Users\Angelo Apenkwah\Desktop\Projects\Logic processor\4bit processor.net(672): This A-device controls a switch device but has zero rise/fall time. Setting rise time to 1ns.
A540 0 N353 0 N387 0 0 N378 0 AND
^^^^^^^^^^^^^^^^^^^^^^^^^^^^^^^^^
C:\Users\Angelo Apenkwah\Desktop\Projects\Logic processor\4bit processor.net(676): This A-device controls a switch device but has zero rise/fall time. Setting rise time to 1ns.
A544 0 N341 0 N380 0 0 N377 0 AND
^^^^^^^^^^^^^^^^^^^^^^^^^^^^^^^^^
solver = Normal
Maximum thread count: 8
tnom = 27
temp = 27
method = trap
WARNING: Node n149 is floating.
WARNING: Node n209 is floating.
WARNING: Node n211 is floating.
WARNING: Node n158 is floating.
WARNING: Node n214 is floating.
WARNING: Node n217 is floating.
WARNING: Node n169 is floating.
WARNING: Node n222 is floating.
WARNING: Node n224 is floating.
WARNING: Node n182 is floating.
WARNING: Node n237 is floating.
WARNING: Node n241 is floating.
WARNING: Node n188 is floating.
WARNING: Node n252 is floating.
WARNING: Node n257 is floating.
WARNING: Node n478 is floating.
WARNING: Node n510 is floating.
WARNING: Node n483 is floating.
WARNING: Node n513 is floating.
WARNING: Node n489 is floating.
WARNING: Node n521 is floating.
WARNING: Node n494 is floating.
WARNING: Node n527 is floating.
WARNING: Node n499 is floating.
WARNING: Node n535 is floating.
WARNING: Node n671 is floating.
WARNING: Node n111 is floating.

Direct Newton iteration succeeded in finding operating point.
Total elapsed time: 1.537 seconds.

Files loaded:
C:\Users\Angelo Apenkwah\Desktop\Projects\Logic processor\4bit processor.net

