LTspice 26.0.1 for Windows
Circuit: C:\Users\Angelo Apenkwah\Desktop\Projects\Logic processor\Draft3.net
Start Time: Thu Apr 23 08:23:25 2026
solver = Normal
Maximum thread count: 8
tnom = 27
temp = 27
method = trap
Direct Newton iteration succeeded in finding operating point.
Total elapsed time: 0.054 seconds.

Files loaded:
C:\Users\Angelo Apenkwah\Desktop\Projects\Logic processor\Draft3.net

