LTspice 26.0.1 for Windows
Circuit: C:\Users\Angelo Apenkwah\Desktop\Projects\Logic processor\Draft4.net
Start Time: Mon Apr 27 15:10:44 2026
solver = Normal
Maximum thread count: 8
tnom = 27
temp = 27
method = trap
Direct Newton iteration succeeded in finding operating point.
Total elapsed time: 0.059 seconds.

Files loaded:
C:\Users\Angelo Apenkwah\Desktop\Projects\Logic processor\Draft4.net

