LTspice 26.0.1 for Windows
Circuit: C:\Users\Angelo Apenkwah\Desktop\Projects\Logic processor\Draft1.net
Start Time: Tue Mar 24 18:25:44 2026
solver = Normal
Maximum thread count: 8
tnom = 27
temp = 27
method = trap
Direct Newton iteration succeeded in finding operating point.
Total elapsed time: 0.081 seconds.

Files loaded:
C:\Users\Angelo Apenkwah\Desktop\Projects\Logic processor\Draft1.net

