LTspice 26.0.1 for Windows
Circuit: C:\Users\Angelo Apenkwah\Desktop\Projects\Logic processor\Draft6.net
Start Time: Mon Apr 27 14:27:49 2026
solver = Normal
Maximum thread count: 8
tnom = 27
temp = 27
method = trap
.OP point found by inspection.
.OP point found by inspection.
Total elapsed time: 0.046 seconds.

Files loaded:
C:\Users\Angelo Apenkwah\Desktop\Projects\Logic processor\Draft6.net

