LTspice 26.0.1 for Windows
Circuit: C:\Users\Angelo Apenkwah\Desktop\Projects\Logic processor\RAM write and read circuit.net
Start Time: Mon Apr 27 16:12:27 2026
solver = Normal
Maximum thread count: 8
tnom = 27
temp = 27
method = trap
Direct Newton iteration succeeded in finding operating point.
Total elapsed time: 0.050 seconds.

Files loaded:
C:\Users\Angelo Apenkwah\Desktop\Projects\Logic processor\RAM write and read circuit.net

